/*--------------------------------*- C++ -*----------------------------------*\
  =========                 |
  \\      /  F ield         | OpenFOAM: The Open Source CFD Toolbox
   \\    /   O peration     | Website:  https://openfoam.org
    \\  /    A nd           | Version:  10
     \\/     M anipulation  |
\*---------------------------------------------------------------------------*/
FoamFile
{
    format      ascii;
    class       polyBoundaryMesh;
    location    "constant/polyMesh";
    object      boundary;
}
// * * * * * * * * * * * * * * * * * * * * * * * * * * * * * * * * * * * * * //

3
(
    walls
    {
        type            symmetry;
        inGroups        List<word> 1(symmetry);
        nFaces          0;
        startFace       166958;
    }
    buildings
    {
        type            wall;
        inGroups        List<word> 1(wall);
        nFaces          10064;
        startFace       166958;
    }
    cylinder1
    {
        type            wall;
        inGroups        List<word> 1(wall);
        nFaces          8700;
        startFace       177022;
    }
)

// ************************************************************************* //
