/*--------------------------------*- C++ -*----------------------------------*\
  =========                 |
  \\      /  F ield         | OpenFOAM: The Open Source CFD Toolbox
   \\    /   O peration     | Website:  https://openfoam.org
    \\  /    A nd           | Version:  10
     \\/     M anipulation  |
\*---------------------------------------------------------------------------*/
FoamFile
{
    format      ascii;
    class       polyBoundaryMesh;
    location    "constant/polyMesh";
    object      boundary;
}
// * * * * * * * * * * * * * * * * * * * * * * * * * * * * * * * * * * * * * //

6
(
    inlet
    {
        type            patch;
        nFaces          250;
        startFace       64274;
    }
    outlet
    {
        type            patch;
        nFaces          200;
        startFace       64524;
    }
    ground
    {
        type            wall;
        inGroups        List<word> 1(wall);
        nFaces          766;
        startFace       64724;
    }
    walls
    {
        type            symmetry;
        inGroups        List<word> 1(symmetry);
        nFaces          1216;
        startFace       65490;
    }
    buildings
    {
        type            wall;
        inGroups        List<word> 1(wall);
        nFaces          0;
        startFace       66706;
    }
    cylinder2
    {
        type            wall;
        inGroups        List<word> 1(wall);
        nFaces          6400;
        startFace       66706;
    }
)

// ************************************************************************* //
